Version 4
SHEET 1 2304 1064
WIRE 1520 -256 1520 -272
WIRE 1520 -160 1520 -176
WIRE 1520 -160 1456 -160
WIRE 1456 -144 1456 -160
WIRE 1520 -144 1520 -160
WIRE 1776 0 1744 0
WIRE 272 16 80 16
WIRE 800 16 656 16
WIRE 976 16 800 16
WIRE 1920 16 1840 16
WIRE 2000 16 1920 16
WIRE 272 32 272 16
WIRE 1264 32 1120 32
WIRE 1440 32 1264 32
WIRE 1776 32 1696 32
WIRE 1920 48 1920 16
WIRE 656 64 656 16
WIRE 480 80 368 80
WIRE 800 80 800 16
WIRE 1120 80 1120 32
WIRE 1264 96 1264 32
WIRE 368 160 368 80
WIRE 400 160 368 160
WIRE 1744 160 1744 0
WIRE 1920 160 1920 128
WIRE 1920 160 1744 160
WIRE 80 176 80 16
WIRE 480 176 480 80
WIRE 480 176 464 176
WIRE 544 176 480 176
WIRE 656 176 656 144
WIRE 656 176 624 176
WIRE 688 176 656 176
WIRE 800 176 800 144
WIRE 800 176 768 176
WIRE 848 176 800 176
WIRE 1920 176 1920 160
WIRE 272 192 272 112
WIRE 320 192 272 192
WIRE 400 192 320 192
WIRE 976 192 976 16
WIRE 976 192 912 192
WIRE 1008 192 976 192
WIRE 1120 192 1120 160
WIRE 1120 192 1088 192
WIRE 1152 192 1120 192
WIRE 1264 192 1264 160
WIRE 1264 192 1232 192
WIRE 1312 192 1264 192
WIRE 656 208 656 176
WIRE 848 208 800 208
WIRE 1440 208 1440 32
WIRE 1440 208 1376 208
WIRE 1472 208 1440 208
WIRE 1600 208 1600 160
WIRE 1600 208 1536 208
WIRE 1696 208 1696 32
WIRE 1696 208 1600 208
WIRE 1120 224 1120 192
WIRE 1312 224 1264 224
WIRE 272 240 272 192
WIRE 1600 240 1600 208
WIRE 1920 288 1920 256
WIRE 656 304 656 272
WIRE 800 304 800 208
WIRE 1120 320 1120 288
WIRE 1264 320 1264 224
WIRE 80 336 80 256
WIRE 128 336 80 336
WIRE 272 336 272 320
WIRE 272 336 128 336
WIRE 128 352 128 336
WIRE 1600 384 1600 320
WIRE 1920 384 1920 352
FLAG 1600 384 0
FLAG 1520 -272 3v3
FLAG 1600 80 3v3
FLAG 1920 384 0
FLAG 128 352 0
FLAG 656 304 0
FLAG 800 304 0
FLAG 1120 320 0
FLAG 1264 320 0
FLAG 1456 -144 0
FLAG 1520 -64 -3v3
FLAG 432 144 3v3
FLAG 880 160 3v3
FLAG 1344 176 3v3
FLAG 1808 -16 3v3
FLAG 432 208 -3v3
FLAG 880 224 -3v3
FLAG 1344 240 -3v3
FLAG 1808 48 -3v3
FLAG 2000 16 out
FLAG 320 192 in
FLAG 1440 208 post_filter
SYMBOL cap 1536 192 R90
WINDOW 0 15 6 VBottom 2
WINDOW 3 18 4 VTop 2
SYMATTR InstName C1
SYMATTR Value 10µ
SYMBOL res 1584 64 R0
SYMATTR InstName R3
SYMATTR Value 100K
SYMBOL res 1584 224 R0
SYMATTR InstName R4
SYMATTR Value 100K
SYMBOL voltage 1520 -272 R0
WINDOW 123 0 0 Left 0
WINDOW 39 0 0 Left 0
SYMATTR InstName V2
SYMATTR Value 3.3
SYMBOL res 1904 32 R0
SYMATTR InstName R5
SYMATTR Value 10k
SYMBOL res 1904 160 R0
SYMATTR InstName R6
SYMATTR Value 68k
SYMBOL cap 1936 352 R180
WINDOW 0 24 56 Left 2
WINDOW 3 24 8 Left 2
SYMATTR InstName C2
SYMATTR Value 10µ
SYMBOL res 528 192 R270
WINDOW 0 58 40 VTop 2
WINDOW 3 58 48 VBottom 2
SYMATTR InstName R7
SYMATTR Value 1k
SYMBOL res 672 192 R270
WINDOW 0 61 47 VTop 2
WINDOW 3 60 50 VBottom 2
SYMATTR InstName R8
SYMATTR Value 6.2k
SYMBOL res 640 48 R0
WINDOW 0 25 -18 Left 2
WINDOW 3 25 10 Left 2
SYMATTR InstName R9
SYMATTR Value 6.8k
SYMBOL cap 640 208 R0
WINDOW 0 35 21 Left 2
WINDOW 3 35 44 Left 2
SYMATTR InstName C3
SYMATTR Value 22n
SYMBOL cap 784 80 R0
WINDOW 0 35 19 Left 2
WINDOW 3 35 43 Left 2
SYMATTR InstName C4
SYMATTR Value 1n
SYMBOL res 992 208 R270
WINDOW 0 57 45 VTop 2
WINDOW 3 59 42 VBottom 2
SYMATTR InstName R10
SYMATTR Value 680
SYMBOL res 1136 208 R270
WINDOW 0 61 48 VTop 2
WINDOW 3 61 42 VBottom 2
SYMATTR InstName R11
SYMATTR Value 30k
SYMBOL res 1104 64 R0
WINDOW 0 24 -16 Left 2
WINDOW 3 24 9 Left 2
SYMATTR InstName R12
SYMATTR Value 4.7k
SYMBOL cap 1104 224 R0
WINDOW 0 39 20 Left 2
WINDOW 3 35 41 Left 2
SYMATTR InstName C5
SYMATTR Value 68n
SYMBOL cap 1248 96 R0
WINDOW 0 35 -12 Left 2
WINDOW 3 35 17 Left 2
SYMATTR InstName C6
SYMATTR Value 100p
SYMBOL voltage 1520 -160 R0
WINDOW 123 0 0 Left 0
WINDOW 39 0 0 Left 0
SYMATTR InstName V4
SYMATTR Value 3.3
SYMBOL res 256 16 R0
SYMATTR InstName R1
SYMATTR Value 23
SYMBOL res 256 224 R0
SYMATTR InstName R2
SYMATTR Value 2m
SYMBOL Opamps\\AD8604 432 112 R0
SYMATTR InstName U1
SYMBOL Opamps\\AD8604 880 128 R0
SYMATTR InstName U2
SYMBOL Opamps\\AD8604 1344 144 R0
WINDOW 3 14 113 Left 2
SYMATTR InstName U3
SYMBOL Opamps\\AD8604 1808 -48 R0
SYMATTR InstName U4
SYMBOL voltage 80 160 R0
WINDOW 3 15 108 Left 2
WINDOW 123 0 0 Left 0
WINDOW 39 0 0 Left 0
SYMATTR InstName V1
SYMATTR Value SINE(0 325 50)
TEXT 136 -184 Left 2 !.lib opamp.sub
TEXT 656 -32 Left 2 ;a = 1.8478\nb = 1
TEXT 1120 -16 Left 2 ;a = 0.7654\nb = 1
TEXT 952 -56 Left 2 ;fg = 5kHz
TEXT 560 176 Left 2 ;R1
TEXT 656 88 VRight 2 ;R2
TEXT 712 176 Left 2 ;R3
TEXT 784 64 VRight 2 ;C1
TEXT 640 256 VRight 2 ;C2
TEXT 1032 192 Left 2 ;R1
TEXT 1176 192 Left 2 ;R3
TEXT 1120 104 VRight 2 ;R2
TEXT 928 -272 Left 2 ;Strommessung
TEXT 1248 80 VRight 2 ;C1
TEXT 1104 272 VRight 2 ;C2
TEXT 200 64 Left 2 ;Last
TEXT 152 -128 Left 2 !.tran 0 200m 140m
